28
	Energy:     180.3663758
Cu        -0.09483       -0.18097        0.09111
N         -0.21000       -2.18507        0.50286
C         -0.82846       -2.44298        1.80333
C         -0.55733       -1.25602        2.62936
O         -0.84660       -1.19629        3.81477
H         -1.93147       -2.54920        1.70710
H         -0.40572       -3.36796        2.25564
H         -0.70967       -2.73407       -0.23293
N         -0.09768       -0.19560        1.95128
C         -0.09896        1.19933        2.39283
C         -0.24351        2.16923        1.17720
O         -0.32762        3.37231        1.37004
H         -0.96637        1.36957        3.06618
H          0.83721        1.41881        2.94834
N         -0.27822        1.67042       -0.09589
C         -0.45219        2.37304       -1.33555
C         -0.35886        1.30799       -2.34968
O         -0.34084        1.54814       -3.54772
H         -1.43627        2.88681       -1.37200
H          0.37362        3.10302       -1.47216
N         -0.17989        0.06243       -1.85336
C          0.36512       -1.04353       -2.58184
C          1.57004       -1.34577       -1.76191
O          1.63144       -0.72831       -0.55261
H         -0.32466       -1.91246       -2.60065
H          0.65099       -0.74333       -3.61326
O          2.44005       -2.11739       -2.13086
H          0.75929       -2.57562        0.56540
